data_image0
_chemical_formula_structural       TiNiAlNiTi2AuTi3AlNiAl2Au3Ni
_chemical_formula_sum              "Ti6 Ni4 Al4 Au4"
_cell_length_a       6.96367475654949
_cell_length_b       7.001018540312176
_cell_length_c       7.124178886413574
_cell_angle_alpha    63.229853617296826
_cell_angle_beta     72.53871111730966
_cell_angle_gamma    64.21136543449116

_space_group_name_H-M_alt    "P 1"
_space_group_IT_number       1

loop_
  _space_group_symop_operation_xyz
  'x, y, z'

loop_
  _atom_site_type_symbol
  _atom_site_label
  _atom_site_symmetry_multiplicity
  _atom_site_fract_x
  _atom_site_fract_y
  _atom_site_fract_z
  _atom_site_occupancy
  Ti  Ti1       1.0  0.23024286329746246  0.2361747920513153  0.6611083149909973  1.0000
  Ni  Ni1       1.0  0.1507737934589386  0.17864067852497104  0.03525368124246596  1.0000
  Al  Al1       1.0  0.3559674620628357  0.4514956474304199  0.9109615683555604  1.0000
  Ni  Ni2       1.0  0.6080768704414368  0.10054168850183487  0.8874084949493409  1.0000
  Ti  Ti2       1.0  0.9969593882560729  0.44970864057540894  0.252855122089386  1.0000
  Ti  Ti3       1.0  0.10997675359249118  0.761561393737793  0.39720565080642695  1.0000
  Au  Au1       1.0  0.7176797389984131  0.798827052116394  0.30290868878364563  1.0000
  Ti  Ti4       1.0  0.4942116439342498  0.7595842480659485  0.01953253149986267  1.0000
  Ti  Ti5       1.0  0.7713912129402161  0.462260365486145  0.7170539498329163  1.0000
  Ti  Ti6       1.0  0.7515078186988831  0.23435005545616153  0.14479129016399384  1.0000
  Al  Al2       1.0  0.34967145323753357  0.07308094948530197  0.29217150807380676  1.0000
  Ni  Ni3       1.0  0.3505469560623169  0.4388710558414459  0.26698070764541626  1.0000
  Al  Al3       1.0  0.6493265032768247  0.9697085618972779  0.5863040089607239  1.0000
  Al  Al4       1.0  0.547736644744873  0.45416405797004705  0.4766186177730561  1.0000
  Au  Au2       1.0  0.9540044069290161  0.09148445725440979  0.569863498210907  1.0000
  Au  Au3       1.0  0.0640551894903183  0.8832379579544067  0.9809597730636598  1.0000
  Au  Au4       1.0  0.9418621063232422  0.6334356069564819  0.8440179228782655  1.0000
  Ni  Ni4       1.0  0.38589030504226685  0.7981670498847961  0.6490129828453064  1.0000
