data_image0
_chemical_formula_structural       Ti2AlTi2AuAlNi2Au3
_chemical_formula_sum              "Ti4 Al2 Au4 Ni2"
_cell_length_a       4.408027388088759
_cell_length_b       6.1547876838866715
_cell_length_c       7.327012538909912
_cell_angle_alpha    90.17801772951893
_cell_angle_beta     107.58816436754257
_cell_angle_gamma    90.01509038730151

_space_group_name_H-M_alt    "P 1"
_space_group_IT_number       1

loop_
  _space_group_symop_operation_xyz
  'x, y, z'

loop_
  _atom_site_type_symbol
  _atom_site_label
  _atom_site_symmetry_multiplicity
  _atom_site_fract_x
  _atom_site_fract_y
  _atom_site_fract_z
  _atom_site_occupancy
  Ti  Ti1       1.0  0.5756092071533203  0.09992255270481108  0.27796557545661926  1.0000
  Ti  Ti2       1.0  0.21358036994934082  0.6000693440437317  0.5539039373397827  1.0000
  Al  Al1       1.0  0.8951574563980103  0.606727123260498  0.9153259992599488  1.0000
  Ti  Ti3       1.0  0.21353840827941895  0.11107074469327927  0.5535718202590942  1.0000
  Ti  Ti4       1.0  0.5750695466995239  0.6124271154403687  0.2764480412006378  1.0000
  Au  Au1       1.0  0.04305427521467209  0.3564040958881378  0.21162122488021853  1.0000
  Al  Al2       1.0  0.8949292898178101  0.1063733398914337  0.9153122901916505  1.0000
  Ni  Ni1       1.0  0.7461920976638794  0.3558967709541321  0.6205175518989563  1.0000
  Ni  Ni2       1.0  0.043502967804670334  0.8570744991302489  0.21105006337165835  1.0000
  Au  Au2       1.0  0.3870779573917389  0.35626301169395447  0.8999866247177125  1.0000
  Au  Au3       1.0  0.746166467666626  0.8562650680541991  0.6186754107475281  1.0000
  Au  Au4       1.0  0.4026610255241394  0.8561068773269653  0.9321191906929017  1.0000
