data_image0
_chemical_formula_structural       TiAlTiAlTi2Ni2Au2
_chemical_formula_sum              "Ti4 Al2 Ni2 Au2"
_cell_length_a       4.508919049465373
_cell_length_b       4.87684414426424
_cell_length_c       7.380249500274658
_cell_angle_alpha    110.698055974803
_cell_angle_beta     90.02045209199589
_cell_angle_gamma    90.08706692113357

_space_group_name_H-M_alt    "P 1"
_space_group_IT_number       1

loop_
  _space_group_symop_operation_xyz
  'x, y, z'

loop_
  _atom_site_type_symbol
  _atom_site_label
  _atom_site_symmetry_multiplicity
  _atom_site_fract_x
  _atom_site_fract_y
  _atom_site_fract_z
  _atom_site_occupancy
  Ti  Ti1       1.0  0.06688792258501053  0.7713465690612793  0.383287250995636  1.0000
  Al  Al1       1.0  0.566515326499939  0.6696606278419495  0.8534098863601685  1.0000
  Ti  Ti2       1.0  0.5660642981529236  0.44469830393791193  0.4434505999088287  1.0000
  Al  Al2       1.0  0.06654231250286102  0.3755432069301605  0.6426509618759155  1.0000
  Ti  Ti3       1.0  0.06688334047794342  0.9711358547210693  0.8223481178283691  1.0000
  Ti  Ti4       1.0  0.5664223432540894  0.3078097701072693  0.06483817100524902  1.0000
  Ni  Ni1       1.0  0.06642501801252365  0.5807722210884094  0.008775657042860985  1.0000
  Ni  Ni2       1.0  0.5665514469146729  0.85149085521698  0.21676954627037048  1.0000
  Au  Au1       1.0  0.5669069290161133  0.045582372695207596  0.6248555183410645  1.0000
  Au  Au2       1.0  0.0667741447687149  0.17631863057613373  0.2178325206041336  1.0000
