data_image0
_chemical_formula_structural       Ti2NiTiAuTiAlNiAlNi
_chemical_formula_sum              "Ti4 Ni3 Au1 Al2"
_cell_length_a       4.001211727293202
_cell_length_b       5.749674652253872
_cell_length_c       6.40500545501709
_cell_angle_alpha    84.71301236274607
_cell_angle_beta     89.55756336039877
_cell_angle_gamma    89.70666637451191

_space_group_name_H-M_alt    "P 1"
_space_group_IT_number       1

loop_
  _space_group_symop_operation_xyz
  'x, y, z'

loop_
  _atom_site_type_symbol
  _atom_site_label
  _atom_site_symmetry_multiplicity
  _atom_site_fract_x
  _atom_site_fract_y
  _atom_site_fract_z
  _atom_site_occupancy
  Ti  Ti1       1.0  0.4711073040962219  0.4258080422878266  0.10391931235790254  1.0000
  Ti  Ti2       1.0  0.971407949924469  0.9377713203430176  0.5686130523681642  1.0000
  Ni  Ni1       1.0  0.47148048877716064  0.22648683190345764  0.4877546131610871  1.0000
  Ti  Ti3       1.0  0.9715628623962402  0.7448381185531616  0.010644503869116306  1.0000
  Au  Au1       1.0  0.9713067412376404  0.3399330675601959  0.8007398247718812  1.0000
  Ti  Ti4       1.0  0.4713428318500519  0.022487543523311615  0.8729848861694337  1.0000
  Al  Al1       1.0  0.47113555669784546  0.8610602021217347  0.2877960801124573  1.0000
  Ni  Ni2       1.0  0.47099655866622925  0.6479571461677551  0.6675655841827393  1.0000
  Al  Al2       1.0  0.9714977741241455  0.4941190779209137  0.4105119705200196  1.0000
  Ni  Ni3       1.0  0.971206545829773  0.14770397543907168  0.20173671841621402  1.0000
