data_image0
_chemical_formula_structural       NiAu3AlTiAu2AlAu2TiNiAl2Au2Al
_chemical_formula_sum              "Ni2 Au9 Al5 Ti2"
_cell_length_a       5.597323579304491
_cell_length_b       6.915544297137597
_cell_length_c       7.799041271209717
_cell_angle_alpha    98.61048051076253
_cell_angle_beta     89.95073635010397
_cell_angle_gamma    100.84737376264036

_space_group_name_H-M_alt    "P 1"
_space_group_IT_number       1

loop_
  _space_group_symop_operation_xyz
  'x, y, z'

loop_
  _atom_site_type_symbol
  _atom_site_label
  _atom_site_symmetry_multiplicity
  _atom_site_fract_x
  _atom_site_fract_y
  _atom_site_fract_z
  _atom_site_occupancy
  Ni  Ni1       1.0  0.8028075695037842  0.47579446434974665  0.3851782083511353  1.0000
  Au  Au1       1.0  0.9335827231407166  0.8115854859352112  0.6169760227203369  1.0000
  Au  Au2       1.0  0.020669082179665565  0.16374479234218597  0.20765903592109683  1.0000
  Au  Au3       1.0  0.31933870911598206  0.49638646841049194  0.4563077092170716  1.0000
  Al  Al1       1.0  0.9856575131416321  0.22027723491191864  0.5502817630767822  1.0000
  Ti  Ti1       1.0  0.6976516842842102  0.8069347739219666  0.30038076639175415  1.0000
  Au  Au4       1.0  0.18449340760707855  0.811308741569519  0.2836815416812897  1.0000
  Au  Au5       1.0  0.7801680564880371  0.176864355802536  0.8551995158195497  1.0000
  Al  Al2       1.0  0.5396313071250916  0.1573840081691742  0.17837868630886078  1.0000
  Au  Au6       1.0  0.26457643508911133  0.1558210700750351  0.8229535222053529  1.0000
  Au  Au7       1.0  0.4497917592525482  0.4686287045478821  0.08940155059099197  1.0000
  Ti  Ti2       1.0  0.6318734884262085  0.5012434124946594  0.7444152832031251  1.0000
  Ni  Ni2       1.0  0.11474140733480453  0.5262540578842163  0.7872540950775148  1.0000
  Al  Al3       1.0  0.9605650901794434  0.8417356014251709  0.9602149724960328  1.0000
  Al  Al4       1.0  0.44178614020347595  0.8290899395942688  0.6372778415679932  1.0000
  Au  Au8       1.0  0.4644685387611389  0.8256471157073975  0.9636129140853883  1.0000
  Au  Au9       1.0  0.5120506882667542  0.14861345291137695  0.4998378455638886  1.0000
  Al  Al5       1.0  0.9445953965187073  0.4898173809051513  0.0825207531452179  1.0000
