data_image0
_chemical_formula_structural       AlTiAlAuTi2AlNiAl
_chemical_formula_sum              "Al4 Ti3 Au1 Ni1"
_cell_length_a       2.9421787477771604
_cell_length_b       7.400408924734265
_cell_length_c       7.405697822570801
_cell_angle_alpha    119.98246525584302
_cell_angle_beta     89.91341619801518
_cell_angle_gamma    90.0194890318396

_space_group_name_H-M_alt    "P 1"
_space_group_IT_number       1

loop_
  _space_group_symop_operation_xyz
  'x, y, z'

loop_
  _atom_site_type_symbol
  _atom_site_label
  _atom_site_symmetry_multiplicity
  _atom_site_fract_x
  _atom_site_fract_y
  _atom_site_fract_z
  _atom_site_occupancy
  Al  Al1       1.0  0.8902350068092346  0.3376453220844269  0.8764923214912415  1.0000
  Ti  Ti1       1.0  0.39056625962257385  0.3383168578147889  0.21527005732059482  1.0000
  Al  Al2       1.0  0.8904989361763  0.9748542904853821  0.12480822950601578  1.0000
  Au  Au1       1.0  0.3908140957355499  0.6799631118774414  0.1719475835561753  1.0000
  Ti  Ti2       1.0  0.3902374804019928  0.06389207392930984  0.5147867202758789  1.0000
  Ti  Ti3       1.0  0.39048510789871216  0.637905180454254  0.7872596979141235  1.0000
  Al  Al3       1.0  0.8902187347412109  0.7262405157089233  0.515433132648468  1.0000
  Ni  Ni1       1.0  0.39096012711524963  0.013080015778541565  0.840399980545044  1.0000
  Al  Al4       1.0  0.8900418877601624  0.345942735671997  0.505420446395874  1.0000
