data_image0
_chemical_formula_structural       TiAlNiAu
_chemical_formula_sum              "Ti1 Al1 Ni1 Au1"
_cell_length_a       4.3739385869405325
_cell_length_b       4.37425719345326
_cell_length_c       4.3751139640808105
_cell_angle_alpha    60.00448297768761
_cell_angle_beta     60.007490160506876
_cell_angle_gamma    60.023336833819

_space_group_name_H-M_alt    "P 1"
_space_group_IT_number       1

loop_
  _space_group_symop_operation_xyz
  'x, y, z'

loop_
  _atom_site_type_symbol
  _atom_site_label
  _atom_site_symmetry_multiplicity
  _atom_site_fract_x
  _atom_site_fract_y
  _atom_site_fract_z
  _atom_site_occupancy
  Ti  Ti1       1.0  0.8094534277915952  0.8022845983505249  0.4315287172794343  1.0000
  Al  Al1       1.0  0.30922049283981323  0.30205866694450384  0.931638240814209  1.0000
  Ni  Ni1       1.0  0.05930527299642562  0.0521315410733223  0.6812950372695923  1.0000
  Au  Au1       1.0  0.5592188835144043  0.5517110228538513  0.18195778131484994  1.0000
