data_image0
_chemical_formula_structural       Al2AuTi3AuAlNi
_chemical_formula_sum              "Al3 Au2 Ti3 Ni1"
_cell_length_a       3.2036841709373314
_cell_length_b       7.1430284176290515
_cell_length_c       7.14810848236084
_cell_angle_alpha    120.02191422615171
_cell_angle_beta     89.94895366934952
_cell_angle_gamma    90.03435152501521

_space_group_name_H-M_alt    "P 1"
_space_group_IT_number       1

loop_
  _space_group_symop_operation_xyz
  'x, y, z'

loop_
  _atom_site_type_symbol
  _atom_site_label
  _atom_site_symmetry_multiplicity
  _atom_site_fract_x
  _atom_site_fract_y
  _atom_site_fract_z
  _atom_site_occupancy
  Al  Al1       1.0  0.86324542760849  0.34509965777397156  0.7373484373092651  1.0000
  Al  Al2       1.0  0.8632847666740417  0.8529016375541687  0.9911317825317383  1.0000
  Au  Au1       1.0  0.8629001975059509  0.9321756362915039  0.6580833792686462  1.0000
  Ti  Ti1       1.0  0.3629935085773468  0.5988575220108032  0.6172897219657898  1.0000
  Ti  Ti2       1.0  0.36269474029541016  0.22486330568790436  0.9910261631011963  1.0000
  Ti  Ti3       1.0  0.36341241002082825  0.9737271070480347  0.3663103580474854  1.0000
  Au  Au2       1.0  0.8629351258277893  0.2663893401622772  0.3250105679035187  1.0000
  Al  Al3       1.0  0.8629457354545593  0.5996440052986145  0.24667464196681976  1.0000
  Ni  Ni1       1.0  0.3630804121494293  0.5988840460777283  0.9921395778656006  1.0000
