data_image0
_chemical_formula_structural       AuAlAu2Ti2NiAlTiAl2AuAlAuNiAuTiAu
_chemical_formula_sum              "Au7 Al5 Ti4 Ni2"
_cell_length_a       3.0402379894315055
_cell_length_b       8.03780454855686
_cell_length_c       12.316902160644531
_cell_angle_alpha    89.07896514719704
_cell_angle_beta     90.01361507158074
_cell_angle_gamma    100.92966437121102

_space_group_name_H-M_alt    "P 1"
_space_group_IT_number       1

loop_
  _space_group_symop_operation_xyz
  'x, y, z'

loop_
  _atom_site_type_symbol
  _atom_site_label
  _atom_site_symmetry_multiplicity
  _atom_site_fract_x
  _atom_site_fract_y
  _atom_site_fract_z
  _atom_site_occupancy
  Au  Au1       1.0  0.09590007364749908  0.11862029135227202  0.19617708027362823  1.0000
  Al  Al1       1.0  0.022525496780872272  0.9719333052635192  0.9170128703117371  1.0000
  Au  Au2       1.0  0.4694006443023681  0.8665950894355773  0.3442288637161255  1.0000
  Au  Au3       1.0  0.2177520841360092  0.3610219061374664  0.5771951079368591  1.0000
  Ti  Ti1       1.0  0.46079990267753596  0.8487161993980407  0.09997756034135818  1.0000
  Ti  Ti2       1.0  0.6427746415138245  0.21096004545688626  0.3874123692512512  1.0000
  Ni  Ni1       1.0  0.8747209906578065  0.675779104232788  0.21027375757694244  1.0000
  Al  Al2       1.0  0.7868975400924683  0.5003049373626708  0.05022989585995674  1.0000
  Ti  Ti3       1.0  0.3946892023086548  0.7156494855880737  0.5607284903526306  1.0000
  Al  Al3       1.0  0.2567499279975891  0.440151959657669  0.24620996415615082  1.0000
  Al  Al4       1.0  0.19465866684913635  0.3166170418262481  0.8870664238929749  1.0000
  Au  Au4       1.0  0.8143357038497926  0.5536855459213256  0.4115557074546814  1.0000
  Al  Al5       1.0  0.7875664830207825  0.5014262795448303  0.7306414246559143  1.0000
  Au  Au5       1.0  0.36559638381004333  0.6591874957084656  0.9045788049697876  1.0000
  Ni  Ni2       1.0  0.6187377572059631  0.16538232564926145  0.012478655204176903  1.0000
  Au  Au6       1.0  0.04271134361624718  0.011908521875739096  0.5312343835830688  1.0000
  Ti  Ti4       1.0  0.6049671769142151  0.13711054623126984  0.7259817719459534  1.0000
  Au  Au7       1.0  0.9535562396049501  0.8340364694595336  0.7292611002922058  1.0000
