data_image0
_chemical_formula_structural       NiAlTi3AuNiAuNi
_chemical_formula_sum              "Ni3 Al1 Ti3 Au2"
_cell_length_a       2.7791141014154865
_cell_length_b       7.385413665670352
_cell_length_c       7.386353015899658
_cell_angle_alpha    119.94454269142825
_cell_angle_beta     89.97199872811983
_cell_angle_gamma    89.98246940810785

_space_group_name_H-M_alt    "P 1"
_space_group_IT_number       1

loop_
  _space_group_symop_operation_xyz
  'x, y, z'

loop_
  _atom_site_type_symbol
  _atom_site_label
  _atom_site_symmetry_multiplicity
  _atom_site_fract_x
  _atom_site_fract_y
  _atom_site_fract_z
  _atom_site_occupancy
  Ni  Ni1       1.0  0.9995959401130676  0.3771922886371613  0.6777409315109253  1.0000
  Al  Al1       1.0  0.49954700469970703  0.0954463481903076  0.6767183542251587  1.0000
  Ti  Ti1       1.0  0.49966323375701904  0.4633261263370514  0.04426513612270355  1.0000
  Ti  Ti2       1.0  0.4996255338191986  0.726762354373932  0.6775258183479309  1.0000
  Ti  Ti3       1.0  0.49964848160743713  0.09643255919218063  0.30908408761024475  1.0000
  Au  Au1       1.0  0.9998866319656372  0.7631962895393372  0.010827315039932728  1.0000
  Ni  Ni2       1.0  0.9990131855010986  0.8147373199462891  0.3961354494094849  1.0000
  Au  Au2       1.0  0.9993250966072083  0.42932417988777155  0.34404319524765015  1.0000
  Ni  Ni3       1.0  0.9999518394470215  0.09658288955688477  0.9577471017837524  1.0000
