data_image0
_chemical_formula_structural       Al2TiNiTiAuAl2Au2AlNi
_chemical_formula_sum              "Al5 Ti2 Ni2 Au3"
_cell_length_a       4.03688356145702
_cell_length_b       4.036403258180403
_cell_length_c       11.165956497192383
_cell_angle_alpha    90.1992118087238
_cell_angle_beta     90.25740502433248
_cell_angle_gamma    90.41724508730212

_space_group_name_H-M_alt    "P 1"
_space_group_IT_number       1

loop_
  _space_group_symop_operation_xyz
  'x, y, z'

loop_
  _atom_site_type_symbol
  _atom_site_label
  _atom_site_symmetry_multiplicity
  _atom_site_fract_x
  _atom_site_fract_y
  _atom_site_fract_z
  _atom_site_occupancy
  Al  Al1       1.0  0.8911799192428589  0.6506744027137756  0.5435250401496887  1.0000
  Al  Al2       1.0  0.8906360268592834  0.6510289907455444  0.8515857458114623  1.0000
  Ti  Ti1       1.0  0.3919159471988678  0.6507238149642944  0.37229016423225403  1.0000
  Ni  Ni1       1.0  0.3902420103549957  0.6512451767921448  0.6898216605186462  1.0000
  Ti  Ti2       1.0  0.3911386728286743  0.15098361670970917  0.5388740301132202  1.0000
  Au  Au1       1.0  0.8916768431663513  0.6513944864273071  0.19806408882141113  1.0000
  Al  Al3       1.0  0.8916175365447998  0.15103645622730255  0.36181214451789856  1.0000
  Al  Al4       1.0  0.8908043503761292  0.15162594616413116  0.04869753494858742  1.0000
  Au  Au2       1.0  0.8912711143493652  0.15053604543209076  0.7053845524787903  1.0000
  Au  Au3       1.0  0.3901838958263397  0.15110284090042114  0.8932886123657227  1.0000
  Al  Al5       1.0  0.39053764939308167  0.6512025594711304  0.04991311579942703  1.0000
  Ni  Ni2       1.0  0.39122751355171204  0.15115368366241455  0.20746858417987823  1.0000
