data_image0
_chemical_formula_structural       AuTiNiTi2AuTiAl2Ti2Ni
_chemical_formula_sum              "Au2 Ti6 Ni2 Al2"
_cell_length_a       4.293652547594158
_cell_length_b       7.106555563131217
_cell_length_c       7.201498031616211
_cell_angle_alpha    63.96134711589507
_cell_angle_beta     72.76232680879633
_cell_angle_gamma    72.51458207244076

_space_group_name_H-M_alt    "P 1"
_space_group_IT_number       1

loop_
  _space_group_symop_operation_xyz
  'x, y, z'

loop_
  _atom_site_type_symbol
  _atom_site_label
  _atom_site_symmetry_multiplicity
  _atom_site_fract_x
  _atom_site_fract_y
  _atom_site_fract_z
  _atom_site_occupancy
  Au  Au1       1.0  0.869878888130188  0.04656103253364562  0.16619375348091125  1.0000
  Ti  Ti1       1.0  0.5425699949264526  0.10738667845726012  0.7597278952598573  1.0000
  Ni  Ni1       1.0  0.6705878376960754  0.6020267009735107  0.01218609604984522  1.0000
  Ti  Ti2       1.0  0.7743004560470582  0.8005610108375549  0.6053887009620667  1.0000
  Ti  Ti3       1.0  0.1943669319152832  0.08424384891986847  0.4806420207023621  1.0000
  Au  Au2       1.0  0.39711916446685797  0.5631271004676818  0.5973404049873352  1.0000
  Ti  Ti4       1.0  0.2753651440143585  0.35162109136581415  0.05175396800041202  1.0000
  Al  Al1       1.0  0.9162556529045104  0.33912262320518494  0.7831199169158937  1.0000
  Al  Al2       1.0  0.4565354287624359  0.836279809474945  0.20445796847343453  1.0000
  Ti  Ti5       1.0  0.04219083487987521  0.53668475151062  0.3317391276359558  1.0000
  Ti  Ti6       1.0  0.11652527749538422  0.8245278000831604  0.8974308371543885  1.0000
  Ni  Ni2       1.0  0.6431334018707275  0.3077656030654907  0.36106011271476746  1.0000
