data_image0
_chemical_formula_structural       AlNi2Ti3NiAlNi2Au2
_chemical_formula_sum              "Al2 Ni5 Ti3 Au2"
_cell_length_a       5.291013921701015
_cell_length_b       5.295018077894536
_cell_length_c       6.558589458465576
_cell_angle_alpha    76.14045513875178
_cell_angle_beta     76.22891475608577
_cell_angle_gamma    73.95034084568977

_space_group_name_H-M_alt    "P 1"
_space_group_IT_number       1

loop_
  _space_group_symop_operation_xyz
  'x, y, z'

loop_
  _atom_site_type_symbol
  _atom_site_label
  _atom_site_symmetry_multiplicity
  _atom_site_fract_x
  _atom_site_fract_y
  _atom_site_fract_z
  _atom_site_occupancy
  Al  Al1       1.0  0.33182722330093384  0.06997738033533096  0.13178354501724243  1.0000
  Ni  Ni1       1.0  0.9987613558769227  0.18317323923110962  0.46291807293891907  1.0000
  Ni  Ni2       1.0  0.6030474901199341  0.8510708212852478  0.8364748358726501  1.0000
  Ti  Ti1       1.0  0.7929375171661377  0.49872067570686346  0.13601520657539368  1.0000
  Ti  Ti2       1.0  0.49593603610992437  0.2001296877861023  0.5181641578674316  1.0000
  Ti  Ti3       1.0  0.051985152065753985  0.9408839344978331  0.8284865617752075  1.0000
  Ni  Ni3       1.0  0.8098037838935852  0.9934799075126648  0.19178494811058044  1.0000
  Al  Al2       1.0  0.9230315089225769  0.6623823642730713  0.5226842164993286  1.0000
  Ni  Ni4       1.0  0.14260224997997287  0.39039772748947144  0.8191648125648499  1.0000
  Ni  Ni5       1.0  0.6536670923233032  0.3388568162918091  0.8271387815475464  1.0000
  Au  Au1       1.0  0.2663532793521881  0.5696607232093811  0.15460726618766785  1.0000
  Au  Au2       1.0  0.4245913028717041  0.7268456816673279  0.49928516149520874  1.0000
